/*--------------------------------*- C++ -*----------------------------------*\
| =========                 |                                                 |
| \\      /  F ield         | OpenFOAM: The Open Source CFD Toolbox           |
|  \\    /   O peration     | Version:  v1906                                 |
|   \\  /    A nd           | Web:      www.OpenFOAM.com                      |
|    \\/     M anipulation  |                                                 |
\*---------------------------------------------------------------------------*/
FoamFile
{
    version     2.0;
    format      ascii;
    class       featureEdgeMesh;
    location    "constant/triSurface";
    object      simpleCar.eMesh;
}
// * * * * * * * * * * * * * * * * * * * * * * * * * * * * * * * * * * * * * //


// points:

181
(
(-1.45 -0.5 2.5)
(-1.25 -0.5 2.5)
(-1.45 0.5 2.5)
(-1.25 0.5 2.5)
(-1.45 -0.5 0)
(-1.45 0.5 0)
(-1.25 0.5 0)
(-1.25 -0.5 0)
(-0.5 -1.5 3.06162e-17)
(0.5 1.5 -3.06162e-17)
(-0.5 1.5 3.06162e-17)
(0.5 -1.5 -3.06162e-17)
(-0.5 -1.1 1)
(0.5 -1.1 1)
(-0.5 -1.40323 3.06162e-17)
(-0.4 -1.5 2.44929e-17)
(-0.5 1.40323 3.06162e-17)
(-0.5 1.30645 3.06162e-17)
(0.4 1.5 -2.44929e-17)
(0.5 1.40323 -3.06162e-17)
(0.5 -1.40323 -3.06162e-17)
(0.5 -1.30645 -3.06162e-17)
(-0.5 -1.30645 3.06162e-17)
(-0.3 1.5 1.83697e-17)
(-0.4 1.5 2.44929e-17)
(-0.5 1.20968 3.06162e-17)
(-0.5 1.1129 3.06162e-17)
(-0.1 1.5 6.12323e-18)
(-0.2 1.5 1.22465e-17)
(0.2 1.5 -1.22465e-17)
(0.1 1.5 -6.12323e-18)
(0.3 1.5 -1.83697e-17)
(0.3 -1.5 -1.83697e-17)
(0.4 -1.5 -2.44929e-17)
(-0.3 -1.5 1.83697e-17)
(-0.2 -1.5 1.22465e-17)
(-0.5 1.01613 3.06162e-17)
(6.64124e-16 1.5 -2.37935e-32)
(0.5 1.30645 -3.06162e-17)
(0.5 0.725806 -3.06162e-17)
(0.5 0.822581 -3.06162e-17)
(-0.5 0.241936 3.06162e-17)
(-0.5 0.145161 3.06162e-17)
(0.5 0.145161 -3.06162e-17)
(0.5 0.241936 -3.06162e-17)
(-0.5 -0.33871 3.06162e-17)
(-0.5 -0.435484 3.06162e-17)
(0.5 -0.435484 -3.06162e-17)
(0.5 -0.33871 -3.06162e-17)
(-0.5 -0.919355 3.06162e-17)
(-0.5 -1.01613 3.06162e-17)
(0.5 -1.01613 -3.06162e-17)
(0.5 -0.919355 -3.06162e-17)
(-0.5 0.919355 3.06162e-17)
(-0.5 0.822581 3.06162e-17)
(-0.5 0.725806 3.06162e-17)
(-0.5 0.629032 3.06162e-17)
(0.5 0.919355 -3.06162e-17)
(0.5 0.532258 -3.06162e-17)
(0.5 0.629032 -3.06162e-17)
(-0.5 0.0483871 3.06162e-17)
(-0.5 0.435484 3.06162e-17)
(-0.5 0.33871 3.06162e-17)
(0.5 0.33871 -3.06162e-17)
(0.5 -0.0483871 -3.06162e-17)
(0.5 0.0483871 -3.06162e-17)
(-0.5 -0.532258 3.06162e-17)
(-0.5 -0.145161 3.06162e-17)
(-0.5 -0.241936 3.06162e-17)
(0.5 -0.532258 -3.06162e-17)
(0.5 -0.241936 -3.06162e-17)
(0.5 -0.145161 -3.06162e-17)
(-0.5 -1.1129 3.06162e-17)
(-0.5 -0.725806 3.06162e-17)
(-0.5 -0.822581 3.06162e-17)
(0.5 -1.1129 -3.06162e-17)
(0.5 -0.822581 -3.06162e-17)
(0.5 -0.725806 -3.06162e-17)
(-2.75546e-16 -1.5 0)
(0.1 -1.5 -6.12323e-18)
(-0.1 -1.5 6.12323e-18)
(0.2 -1.5 -1.22465e-17)
(0.5 -1.20968 -3.06162e-17)
(0.5 1.1129 -3.06162e-17)
(0.5 1.20968 -3.06162e-17)
(-0.5 0.532258 3.06162e-17)
(-0.5 -0.0483871 3.06162e-17)
(0.5 1.01613 -3.06162e-17)
(0.5 0.435484 -3.06162e-17)
(-0.5 -0.629032 3.06162e-17)
(0.5 -0.629032 -3.06162e-17)
(-0.5 -1.20968 3.06162e-17)
(-0.5 1.46439 0.090134)
(-0.5 -1.48421 0.0988407)
(-0.5 1.42915 0.180416)
(-0.5 -1 0.99375)
(-0.5 -1.16755 0.926137)
(-0.5 -1.46748 0.197528)
(-0.5 1.39279 0.270254)
(-0.5 1.35368 0.358916)
(-0.5 1.20056 0.604941)
(-0.5 1.13161 0.672919)
(-0.5 1.30994 0.445381)
(-0.5 1.25955 0.528129)
(-0.5 0.595063 0.881126)
(-0.5 0.5 0.9)
(-0.5 0.1 0.925)
(-0.5 1.4736e-16 0.93125)
(-0.5 -0.1 0.9375)
(-0.5 -1.37303 0.586204)
(-0.5 -1.40266 0.490607)
(-0.5 -1.42759 0.393676)
(-0.5 -1.44891 0.295883)
(-0.5 1.05282 0.729178)
(-0.5 0.4 0.90625)
(-0.5 0.783745 0.836892)
(-0.5 0.689757 0.860508)
(-0.5 0.2 0.91875)
(-0.5 -0.2 0.94375)
(-0.5 0.3 0.9125)
(-0.5 -0.5 0.9625)
(-0.5 -0.6 0.96875)
(-0.5 -0.3 0.95)
(-0.5 -0.4 0.95625)
(-0.5 -0.8 0.98125)
(-0.5 -0.9 0.9875)
(-0.5 -0.7 0.975)
(-0.5 -1.23192 0.849511)
(-0.5 -1.28943 0.767642)
(-0.5 -1.33626 0.679262)
(-0.5 0.966754 0.773588)
(-0.5 0.876429 0.808632)
(0.5 1.46439 0.090134)
(0.5 -1.48421 0.0988407)
(0.5 1.42915 0.180416)
(0.5 -1 0.99375)
(0.5 -1.16755 0.926137)
(0.5 -1.46748 0.197528)
(0.5 1.35368 0.358916)
(0.5 1.39279 0.270254)
(0.5 1.13161 0.672919)
(0.5 1.20056 0.604941)
(0.5 1.25955 0.528129)
(0.5 1.30994 0.445381)
(0.5 0.5 0.9)
(0.5 0.595063 0.881126)
(0.5 -9.18485e-17 0.93125)
(0.5 0.1 0.925)
(0.5 -0.1 0.9375)
(0.5 -1.40266 0.490607)
(0.5 -1.37303 0.586204)
(0.5 -1.42759 0.393676)
(0.5 -1.44891 0.295883)
(0.5 1.05282 0.729178)
(0.5 0.4 0.90625)
(0.5 0.689757 0.860508)
(0.5 0.783745 0.836892)
(0.5 0.2 0.91875)
(0.5 -0.2 0.94375)
(0.5 0.3 0.9125)
(0.5 -0.6 0.96875)
(0.5 -0.5 0.9625)
(0.5 -0.4 0.95625)
(0.5 -0.3 0.95)
(0.5 -0.9 0.9875)
(0.5 -0.8 0.98125)
(0.5 -0.7 0.975)
(0.5 -1.23192 0.849511)
(0.5 -1.28943 0.767642)
(0.5 -1.33626 0.679262)
(0.5 0.876429 0.808632)
(0.5 0.966754 0.773588)
(0.4 -1.1 1)
(-0.3 -1.1 1)
(-0.4 -1.1 1)
(0.2 -1.1 1)
(0.1 -1.1 1)
(0.3 -1.1 1)
(-8.53232e-17 -1.1 1)
(-0.1 -1.1 1)
(-0.2 -1.1 1)
)


// edges:

188
(
(2 0)
(0 1)
(3 2)
(1 3)
(2 5)
(5 4)
(4 0)
(3 6)
(6 5)
(7 6)
(1 7)
(4 7)
(14 8)
(8 15)
(16 17)
(9 18)
(19 9)
(20 21)
(22 14)
(23 24)
(25 26)
(27 28)
(17 25)
(29 30)
(18 31)
(31 29)
(32 33)
(34 35)
(15 34)
(10 16)
(24 10)
(26 36)
(37 27)
(38 19)
(39 40)
(41 42)
(43 44)
(45 46)
(47 48)
(49 50)
(51 52)
(11 20)
(33 11)
(30 37)
(53 54)
(54 55)
(55 56)
(40 57)
(58 59)
(59 39)
(42 60)
(61 62)
(62 41)
(44 63)
(64 65)
(65 43)
(46 66)
(67 68)
(68 45)
(69 47)
(70 71)
(48 70)
(50 72)
(73 74)
(74 49)
(75 51)
(76 77)
(52 76)
(78 79)
(80 78)
(28 23)
(36 53)
(71 64)
(35 80)
(79 81)
(81 32)
(21 82)
(83 84)
(56 85)
(60 86)
(82 75)
(57 87)
(87 83)
(85 61)
(88 58)
(86 67)
(89 73)
(90 69)
(91 22)
(77 90)
(72 91)
(63 88)
(66 89)
(84 38)
(10 92)
(93 8)
(92 94)
(95 12)
(12 96)
(97 93)
(98 99)
(94 98)
(100 101)
(102 103)
(104 105)
(106 107)
(107 108)
(109 110)
(110 111)
(112 97)
(101 113)
(103 100)
(99 102)
(105 114)
(115 116)
(117 106)
(108 118)
(119 117)
(120 121)
(122 123)
(124 125)
(126 124)
(121 126)
(111 112)
(114 119)
(118 122)
(96 127)
(127 128)
(128 129)
(125 95)
(130 131)
(113 130)
(129 109)
(131 115)
(116 104)
(123 120)
(132 9)
(11 133)
(134 132)
(13 135)
(136 13)
(133 137)
(138 139)
(139 134)
(140 141)
(142 143)
(144 145)
(146 147)
(148 146)
(149 150)
(151 149)
(137 152)
(153 140)
(141 142)
(143 138)
(154 144)
(155 156)
(147 157)
(158 148)
(157 159)
(160 161)
(162 163)
(164 165)
(165 166)
(166 160)
(152 151)
(159 154)
(163 158)
(167 136)
(168 167)
(169 168)
(135 164)
(170 171)
(171 153)
(150 169)
(156 170)
(145 155)
(161 162)
(13 172)
(173 174)
(175 176)
(172 177)
(174 12)
(177 175)
(178 179)
(176 178)
(180 173)
(179 180)
)

// * * * * * * * * * * * * * * * * * * * * * * * * * * * * * * * * * * * * * //


// ************************************************************************* //
