/*--------------------------------*- C++ -*----------------------------------*\
| =========                 |                                                 |
| \\      /  F ield         | OpenFOAM: The Open Source CFD Toolbox           |
|  \\    /   O peration     | Version:  v1906                                 |
|   \\  /    A nd           | Web:      www.OpenFOAM.com                      |
|    \\/     M anipulation  |                                                 |
\*---------------------------------------------------------------------------*/
FoamFile
{
    version     2.0;
    format      ascii;
    class       extendedFeatureEdgeMesh;
    location    "constant/extendedFeatureEdgeMesh";
    object      simpleCar.extendedFeatureEdgeMesh;
}
// * * * * * * * * * * * * * * * * * * * * * * * * * * * * * * * * * * * * * //

// points

181
(
(-1.45 -0.5 2.5)
(-1.25 -0.5 2.5)
(-1.45 0.5 2.5)
(-1.25 0.5 2.5)
(-1.45 -0.5 0)
(-1.45 0.5 0)
(-1.25 0.5 0)
(-1.25 -0.5 0)
(-0.5 -1.5 3.06162e-17)
(0.5 1.5 -3.06162e-17)
(-0.5 1.5 3.06162e-17)
(0.5 -1.5 -3.06162e-17)
(-0.5 -1.1 1)
(0.5 -1.1 1)
(-0.5 -1.40323 3.06162e-17)
(-0.4 -1.5 2.44929e-17)
(-0.5 1.40323 3.06162e-17)
(-0.5 1.30645 3.06162e-17)
(0.4 1.5 -2.44929e-17)
(0.5 1.40323 -3.06162e-17)
(0.5 -1.40323 -3.06162e-17)
(0.5 -1.30645 -3.06162e-17)
(-0.5 -1.30645 3.06162e-17)
(-0.3 1.5 1.83697e-17)
(-0.4 1.5 2.44929e-17)
(-0.5 1.20968 3.06162e-17)
(-0.5 1.1129 3.06162e-17)
(-0.1 1.5 6.12323e-18)
(-0.2 1.5 1.22465e-17)
(0.2 1.5 -1.22465e-17)
(0.1 1.5 -6.12323e-18)
(0.3 1.5 -1.83697e-17)
(0.3 -1.5 -1.83697e-17)
(0.4 -1.5 -2.44929e-17)
(-0.3 -1.5 1.83697e-17)
(-0.2 -1.5 1.22465e-17)
(-0.5 1.01613 3.06162e-17)
(6.64124e-16 1.5 -2.37935e-32)
(0.5 1.30645 -3.06162e-17)
(0.5 0.725806 -3.06162e-17)
(0.5 0.822581 -3.06162e-17)
(-0.5 0.241936 3.06162e-17)
(-0.5 0.145161 3.06162e-17)
(0.5 0.145161 -3.06162e-17)
(0.5 0.241936 -3.06162e-17)
(-0.5 -0.33871 3.06162e-17)
(-0.5 -0.435484 3.06162e-17)
(0.5 -0.435484 -3.06162e-17)
(0.5 -0.33871 -3.06162e-17)
(-0.5 -0.919355 3.06162e-17)
(-0.5 -1.01613 3.06162e-17)
(0.5 -1.01613 -3.06162e-17)
(0.5 -0.919355 -3.06162e-17)
(-0.5 0.919355 3.06162e-17)
(-0.5 0.822581 3.06162e-17)
(-0.5 0.725806 3.06162e-17)
(-0.5 0.629032 3.06162e-17)
(0.5 0.919355 -3.06162e-17)
(0.5 0.532258 -3.06162e-17)
(0.5 0.629032 -3.06162e-17)
(-0.5 0.0483871 3.06162e-17)
(-0.5 0.435484 3.06162e-17)
(-0.5 0.33871 3.06162e-17)
(0.5 0.33871 -3.06162e-17)
(0.5 -0.0483871 -3.06162e-17)
(0.5 0.0483871 -3.06162e-17)
(-0.5 -0.532258 3.06162e-17)
(-0.5 -0.145161 3.06162e-17)
(-0.5 -0.241936 3.06162e-17)
(0.5 -0.532258 -3.06162e-17)
(0.5 -0.241936 -3.06162e-17)
(0.5 -0.145161 -3.06162e-17)
(-0.5 -1.1129 3.06162e-17)
(-0.5 -0.725806 3.06162e-17)
(-0.5 -0.822581 3.06162e-17)
(0.5 -1.1129 -3.06162e-17)
(0.5 -0.822581 -3.06162e-17)
(0.5 -0.725806 -3.06162e-17)
(-2.75546e-16 -1.5 0)
(0.1 -1.5 -6.12323e-18)
(-0.1 -1.5 6.12323e-18)
(0.2 -1.5 -1.22465e-17)
(0.5 -1.20968 -3.06162e-17)
(0.5 1.1129 -3.06162e-17)
(0.5 1.20968 -3.06162e-17)
(-0.5 0.532258 3.06162e-17)
(-0.5 -0.0483871 3.06162e-17)
(0.5 1.01613 -3.06162e-17)
(0.5 0.435484 -3.06162e-17)
(-0.5 -0.629032 3.06162e-17)
(0.5 -0.629032 -3.06162e-17)
(-0.5 -1.20968 3.06162e-17)
(-0.5 1.46439 0.090134)
(-0.5 -1.48421 0.0988407)
(-0.5 1.42915 0.180416)
(-0.5 -1 0.99375)
(-0.5 -1.16755 0.926137)
(-0.5 -1.46748 0.197528)
(-0.5 1.39279 0.270254)
(-0.5 1.35368 0.358916)
(-0.5 1.20056 0.604941)
(-0.5 1.13161 0.672919)
(-0.5 1.30994 0.445381)
(-0.5 1.25955 0.528129)
(-0.5 0.595063 0.881126)
(-0.5 0.5 0.9)
(-0.5 0.1 0.925)
(-0.5 1.4736e-16 0.93125)
(-0.5 -0.1 0.9375)
(-0.5 -1.37303 0.586204)
(-0.5 -1.40266 0.490607)
(-0.5 -1.42759 0.393676)
(-0.5 -1.44891 0.295883)
(-0.5 1.05282 0.729178)
(-0.5 0.4 0.90625)
(-0.5 0.783745 0.836892)
(-0.5 0.689757 0.860508)
(-0.5 0.2 0.91875)
(-0.5 -0.2 0.94375)
(-0.5 0.3 0.9125)
(-0.5 -0.5 0.9625)
(-0.5 -0.6 0.96875)
(-0.5 -0.3 0.95)
(-0.5 -0.4 0.95625)
(-0.5 -0.8 0.98125)
(-0.5 -0.9 0.9875)
(-0.5 -0.7 0.975)
(-0.5 -1.23192 0.849511)
(-0.5 -1.28943 0.767642)
(-0.5 -1.33626 0.679262)
(-0.5 0.966754 0.773588)
(-0.5 0.876429 0.808632)
(0.5 1.46439 0.090134)
(0.5 -1.48421 0.0988407)
(0.5 1.42915 0.180416)
(0.5 -1 0.99375)
(0.5 -1.16755 0.926137)
(0.5 -1.46748 0.197528)
(0.5 1.35368 0.358916)
(0.5 1.39279 0.270254)
(0.5 1.13161 0.672919)
(0.5 1.20056 0.604941)
(0.5 1.25955 0.528129)
(0.5 1.30994 0.445381)
(0.5 0.5 0.9)
(0.5 0.595063 0.881126)
(0.5 -9.18485e-17 0.93125)
(0.5 0.1 0.925)
(0.5 -0.1 0.9375)
(0.5 -1.40266 0.490607)
(0.5 -1.37303 0.586204)
(0.5 -1.42759 0.393676)
(0.5 -1.44891 0.295883)
(0.5 1.05282 0.729178)
(0.5 0.4 0.90625)
(0.5 0.689757 0.860508)
(0.5 0.783745 0.836892)
(0.5 0.2 0.91875)
(0.5 -0.2 0.94375)
(0.5 0.3 0.9125)
(0.5 -0.6 0.96875)
(0.5 -0.5 0.9625)
(0.5 -0.4 0.95625)
(0.5 -0.3 0.95)
(0.5 -0.9 0.9875)
(0.5 -0.8 0.98125)
(0.5 -0.7 0.975)
(0.5 -1.23192 0.849511)
(0.5 -1.28943 0.767642)
(0.5 -1.33626 0.679262)
(0.5 0.876429 0.808632)
(0.5 0.966754 0.773588)
(0.4 -1.1 1)
(-0.3 -1.1 1)
(-0.4 -1.1 1)
(0.2 -1.1 1)
(0.1 -1.1 1)
(0.3 -1.1 1)
(-8.53232e-17 -1.1 1)
(-0.1 -1.1 1)
(-0.2 -1.1 1)
)

// edges

188
(
(2 0)
(0 1)
(3 2)
(1 3)
(2 5)
(5 4)
(4 0)
(3 6)
(6 5)
(7 6)
(1 7)
(4 7)
(14 8)
(8 15)
(16 17)
(9 18)
(19 9)
(20 21)
(22 14)
(23 24)
(25 26)
(27 28)
(17 25)
(29 30)
(18 31)
(31 29)
(32 33)
(34 35)
(15 34)
(10 16)
(24 10)
(26 36)
(37 27)
(38 19)
(39 40)
(41 42)
(43 44)
(45 46)
(47 48)
(49 50)
(51 52)
(11 20)
(33 11)
(30 37)
(53 54)
(54 55)
(55 56)
(40 57)
(58 59)
(59 39)
(42 60)
(61 62)
(62 41)
(44 63)
(64 65)
(65 43)
(46 66)
(67 68)
(68 45)
(69 47)
(70 71)
(48 70)
(50 72)
(73 74)
(74 49)
(75 51)
(76 77)
(52 76)
(78 79)
(80 78)
(28 23)
(36 53)
(71 64)
(35 80)
(79 81)
(81 32)
(21 82)
(83 84)
(56 85)
(60 86)
(82 75)
(57 87)
(87 83)
(85 61)
(88 58)
(86 67)
(89 73)
(90 69)
(91 22)
(77 90)
(72 91)
(63 88)
(66 89)
(84 38)
(10 92)
(93 8)
(92 94)
(95 12)
(12 96)
(97 93)
(98 99)
(94 98)
(100 101)
(102 103)
(104 105)
(106 107)
(107 108)
(109 110)
(110 111)
(112 97)
(101 113)
(103 100)
(99 102)
(105 114)
(115 116)
(117 106)
(108 118)
(119 117)
(120 121)
(122 123)
(124 125)
(126 124)
(121 126)
(111 112)
(114 119)
(118 122)
(96 127)
(127 128)
(128 129)
(125 95)
(130 131)
(113 130)
(129 109)
(131 115)
(116 104)
(123 120)
(132 9)
(11 133)
(134 132)
(13 135)
(136 13)
(133 137)
(138 139)
(139 134)
(140 141)
(142 143)
(144 145)
(146 147)
(148 146)
(149 150)
(151 149)
(137 152)
(153 140)
(141 142)
(143 138)
(154 144)
(155 156)
(147 157)
(158 148)
(157 159)
(160 161)
(162 163)
(164 165)
(165 166)
(166 160)
(152 151)
(159 154)
(163 158)
(167 136)
(168 167)
(169 168)
(135 164)
(170 171)
(171 153)
(150 169)
(156 170)
(145 155)
(161 162)
(13 172)
(173 174)
(175 176)
(172 177)
(174 12)
(177 175)
(178 179)
(176 178)
(180 173)
(179 180)
)

// concaveStart mixedStart nonFeatureStart
8 14 14
// internalStart flatStart openStart multipleStart
12 188 188 188
// normals

357
(
(6.12324e-17 0 1)
(1 0 0)
(-9.59908e-18 0.987636 -0.156765)
(6.12324e-17 0 1)
(1 0 0)
(6.12324e-17 8.5506e-25 1)
(-2.26078e-17 -0.929345 -0.369213)
(6.12324e-17 0 1)
(-1 0 0)
(6.12323e-17 -0 1)
(-1 0 0)
(6.12323e-17 0 1)
(1 0 0)
(6.12323e-17 1.75535e-23 1)
(-2.24867e-17 -0.930128 -0.367236)
(6.12324e-17 0 1)
(1 0 0)
(6.12323e-17 1.02607e-23 1)
(-2.25175e-17 -0.929929 -0.367738)
(6.12324e-17 0 1)
(1 0 0)
(6.12323e-17 -9.35619e-24 1)
(-5.10686e-17 -0.929803 -0.368058)
(6.12323e-17 -2.81119e-24 1)
(-2.25593e-17 -0.929659 -0.368421)
(6.12323e-17 3.79631e-26 1)
(-2.25323e-17 -0.929834 -0.36798)
(6.12323e-17 -3.85844e-24 1)
(-9.63015e-18 0.987555 -0.157272)
(6.12323e-17 5.82557e-24 1)
(-9.64647e-18 0.987513 -0.157539)
(6.12323e-17 8.17801e-24 1)
(-9.59907e-18 0.987636 -0.156765)
(6.12323e-17 0 1)
(1 0 0)
(6.12324e-17 1.46362e-23 1)
(-2.25015e-17 -0.930033 -0.367477)
(6.12324e-17 0 1)
(1 0 0)
(6.12323e-17 -2.55014e-25 1)
(0 -0.929493 -0.368839)
(6.12324e-17 0 1)
(-1 0 0)
(6.12324e-17 0 1)
(-1 0 0)
(6.12324e-17 -0 1)
(1 0 0)
(6.12324e-17 0 1)
(-1 0 0)
(6.12324e-17 0 1)
(1 0 0)
(6.12324e-17 0 1)
(-1 0 -0)
(6.12324e-17 0 1)
(1 0 0)
(6.12323e-17 -0 1)
(-1 0 0)
(6.12324e-17 0 1)
(-1 0 0)
(6.12324e-17 1.34685e-23 1)
(-9.65374e-18 0.987494 -0.157657)
(6.12323e-17 -2.70733e-24 1)
(0 -0.929552 -0.368691)
(6.12324e-17 -0 1)
(1 0 0)
(6.12324e-17 0 1)
(1 0 0)
(6.12324e-17 -0 1)
(1 0 0)
(6.12323e-17 0 1)
(-1 0 0)
(6.12323e-17 0 1)
(-1 0 -0)
(6.12324e-17 0 1)
(-1 0 0)
(6.12324e-17 0 1)
(1 0 0)
(6.12324e-17 0 1)
(1 0 0)
(6.12323e-17 0 1)
(1 0 0)
(6.12323e-17 -0 1)
(-1 0 -0)
(6.12324e-17 -0 1)
(-1 0 -0)
(6.12323e-17 -0 1)
(-1 0 -0)
(6.12324e-17 0 1)
(1 0 0)
(6.12324e-17 0 1)
(1 0 0)
(6.12324e-17 0 1)
(1 0 0)
(6.12324e-17 -0 1)
(-1 0 0)
(6.12324e-17 0 1)
(-1 0 0)
(6.12324e-17 -0 1)
(-1 0 -0)
(6.12324e-17 0 1)
(1 0 0)
(6.12324e-17 -0 1)
(1 0 0)
(6.12323e-17 0 1)
(1 0 0)
(6.12324e-17 0 1)
(-1 0 0)
(6.12324e-17 -0 1)
(-1 0 -0)
(6.12323e-17 0 1)
(-1 0 -0)
(6.12323e-17 2.03286e-24 1)
(-9.60648e-18 0.987617 -0.156886)
(6.12323e-17 -4.17413e-25 1)
(-9.63627e-18 0.987539 -0.157372)
(6.12323e-17 7.39552e-24 1)
(0 -0.929929 -0.367738)
(6.12324e-17 0 1)
(1 0 0)
(6.12324e-17 0 1)
(-1 0 -0)
(6.12323e-17 -3.26378e-24 1)
(-9.66415e-18 0.987467 -0.157828)
(6.12323e-17 4.99623e-25 1)
(-9.64178e-18 0.987525 -0.157462)
(6.12323e-17 -6.86263e-24 1)
(-9.60474e-18 0.987621 -0.156857)
(6.12324e-17 0 1)
(-1 0 0)
(6.12324e-17 -0 1)
(-1 0 0)
(6.12324e-17 0 1)
(1 0 0)
(6.12324e-17 0 1)
(1 0 0)
(6.12323e-17 -0 1)
(-1 0 0)
(6.12324e-17 -0 1)
(-1 0 0)
(6.12323e-17 0 1)
(-1 0 0)
(6.12324e-17 0 1)
(1 0 0)
(6.12324e-17 -0 1)
(-1 0 0)
(6.12323e-17 -0 1)
(1 0 0)
(6.12324e-17 0 1)
(1 0 0)
(6.12324e-17 0 1)
(-1 0 0)
(6.12323e-17 0 1)
(1 0 0)
(6.12323e-17 0 1)
(-1 0 0)
(6.12324e-17 0 1)
(1 0 0)
(6.12324e-17 0 1)
(-1 0 0)
(6.12324e-17 0 1)
(1 0 0)
(6.12324e-17 0 1)
(-1 0 -0)
(0.000607173 0.987471 -0.1578)
(1 0 0)
(3.5559e-05 -0.931557 -0.363595)
(1 0 0)
(1.12478e-07 -0.0623785 -0.998053)
(1 0 0)
(0.00383461 0.737938 -0.674858)
(1 0 0)
(0.00181537 0.985945 -0.167062)
(1 0 0)
(0.00237092 -0.914905 -0.403661)
(1 0 0)
(0.00110367 -0.926982 -0.375103)
(1 0 0)
(0.0178875 -0.701972 -0.711979)
(1 0 0)
(0.0064249 -0.854105 -0.520061)
(1 0 0)
(-0 -0.194742 -0.980855)
(1 0 0)
(1.98808e-08 -0.0623779 -0.998053)
(1 0 0)
(-2.05179e-07 -0.0623785 -0.998053)
(1 0 0)
(0.00914818 0.955157 -0.29596)
(1 0 0)
(0.00515821 0.968449 -0.249158)
(1 0 0)
(0.00332659 0.982635 -0.185517)
(1 0 0)
(0.0240598 -0.580947 -0.813585)
(1 0 0)
(-0.00944127 -0.793044 -0.609091)
(1 0 0)
(0.00672682 -0.892306 -0.451381)
(1 0 0)
(3.21324e-07 -0.0623785 -0.998053)
(1 0 0)
(0.00421791 -0.243689 -0.969844)
(1 0 0)
(-2.17818e-07 -0.0623785 -0.998053)
(1 0 0)
(1.20775e-08 -0.0623785 -0.998053)
(1 0 0)
(-2.36063e-07 -0.0623779 -0.998053)
(1 0 0)
(1.21442e-06 -0.0623785 -0.998053)
(1 0 0)
(7.46128e-07 -0.0623785 -0.998053)
(1 0 0)
(-3.90574e-07 -0.0623785 -0.998053)
(1 0 0)
(-4.16093e-07 -0.0623779 -0.998053)
(1 0 0)
(8.68789e-08 -0.0623785 -0.998053)
(1 0 0)
(0.00301496 0.977046 -0.213008)
(1 0 0)
(-1.20331e-07 -0.0623785 -0.998053)
(1 0 0)
(6.08221e-07 -0.0623779 -0.998053)
(1 0 0)
(0.0087176 0.765637 -0.643213)
(1 0 0)
(0.0114487 0.818261 -0.574733)
(1 0 0)
(0.0119218 0.883521 -0.468241)
(1 0 0)
(2.71104e-07 -0.0623779 -0.998053)
(1 0 0)
(0.0168364 -0.361658 -0.932159)
(1 0 0)
(0.0222589 -0.458419 -0.888457)
(1 0 0)
(0.0158283 0.929914 -0.367436)
(1 0 0)
(0.0038851 -0.291654 -0.956516)
(1 0 0)
(0.00312258 -0.212743 -0.977103)
(1 0 -0)
(1.58936e-07 -0.0623779 -0.998053)
(0.0017951 -0.930031 -0.367477)
(-0.000144416 0.987471 -0.1578)
(-1 0 -0)
(-0.000531633 -0.931557 -0.363595)
(-1 0 0)
(7.51944e-07 -0.0623785 -0.998053)
(-1 0 0)
(0 0.737943 -0.674863)
(-1 0 -0)
(-0.000542233 0.985946 -0.167062)
(-1 0 -0)
(-0.00658903 -0.914888 -0.403654)
(-1 0 0)
(-0.00262381 -0.92698 -0.375102)
(-1 0 -0)
(-0.0270572 -0.701828 -0.711833)
(-1 0 -0)
(-0.00638543 -0.854105 -0.520061)
(-1 -0 0)
(-0.00219012 -0.194741 -0.980852)
(-1 0 0)
(-4.89415e-07 -0.0623779 -0.998053)
(-1 0 0)
(-6.98297e-07 -0.0623785 -0.998053)
(-1 -0 0)
(-0.00796576 0.955166 -0.295963)
(-1 -0 0)
(-0.00759623 0.968434 -0.249154)
(-1 0 0)
(-0.00081759 0.98264 -0.185518)
(-1 -0 0)
(-0.0242993 -0.580944 -0.813581)
(-1 -0 0)
(0.00941942 -0.793045 -0.609091)
(-1 0 0)
(-0.0116545 -0.892265 -0.451361)
(-1 0 0)
(1.0753e-07 -0.0623785 -0.998053)
(-1 0 0)
(-0.00309078 -0.24369 -0.969848)
(-1 0 0)
(-8.56168e-08 -0.0623785 -0.998053)
(-1 0 0)
(8.3533e-07 -0.0623785 -0.998053)
(-1 0 0)
(4.82614e-08 -0.0623779 -0.998053)
(-1 0 0)
(-8.24486e-08 -0.0623785 -0.998053)
(-1 -0 0)
(1.46135e-07 -0.0623785 -0.998053)
(-1 0 0)
(-6.27108e-07 -0.0623785 -0.998053)
(-1 -0 0)
(-6.43746e-07 -0.0623779 -0.998053)
(-1 0 0)
(6.07071e-07 -0.0623785 -0.998053)
(-1 0 0)
(0.00110861 0.97705 -0.213008)
(-1 -0 0)
(1.33075e-07 -0.0623785 -0.998053)
(-1 0 0)
(-3.08811e-07 -0.0623779 -0.998053)
(-1 0 -0)
(-0.00637785 0.765651 -0.643225)
(-1 -0 0)
(-0.0149517 0.818223 -0.574706)
(-1 0 0)
(-0.0256547 0.883292 -0.46812)
(-1 0 0)
(1.62966e-08 -0.0623779 -0.998053)
(-1 -0 0)
(-0.0134283 -0.361677 -0.932207)
(-1 0 -0)
(-0.0185972 -0.458454 -0.888524)
(-1 0 -0)
(-0.00920878 0.929991 -0.367466)
(-1 0 0)
(-0.000818597 -0.291656 -0.956523)
(-1 0 0)
(-0.00462071 -0.212742 -0.977097)
(-1 0 0)
(-1.67603e-07 -0.0623779 -0.998053)
(-0 -0.0623793 -0.998053)
(-0 -0.0623788 -0.998053)
(0 0.735957 -0.677028)
(-0 -0.0623788 -0.998053)
(0 0.736211 -0.676752)
(-0 -0.0623788 -0.998053)
(0 0.734547 -0.678558)
(-0 -0.0623784 -0.998053)
(0 0.735225 -0.677824)
(-0 -0.0623789 -0.998053)
(0 0.734547 -0.678558)
(-0 -0.0623786 -0.998053)
(0 0.735065 -0.677996)
(-0 -0.062378 -0.998053)
(0 0.736261 -0.676697)
(-0 -0.0623778 -0.998053)
(0 0.736408 -0.676538)
(-0 -0.0623783 -0.998053)
(0 0.737209 -0.675665)
(0 0 1)
(-1 0 0)
(0 -1 0)
(-0 0 1)
(-0 1 0)
(1 0 0)
(-1 0 0)
(0 0 -1)
(0 1 0)
(1 0 -0)
(-0 -0 -1)
(0 -1 0)
)

// normal volume types

357
(
0
0
0
0
0
0
0
0
0
0
0
0
0
0
0
0
0
0
0
0
0
0
0
0
0
0
0
0
0
0
0
0
0
0
0
0
0
0
0
0
0
0
0
0
0
0
0
0
0
0
0
0
0
0
0
0
0
0
0
0
0
0
0
0
0
0
0
0
0
0
0
0
0
0
0
0
0
0
0
0
0
0
0
0
0
0
0
0
0
0
0
0
0
0
0
0
0
0
0
0
0
0
0
0
0
0
0
0
0
0
0
0
0
0
0
0
0
0
0
0
0
0
0
0
0
0
0
0
0
0
0
0
0
0
0
0
0
0
0
0
0
0
0
0
0
0
0
0
0
0
0
0
0
0
0
0
0
0
0
0
0
0
0
0
0
0
0
0
0
0
0
0
0
0
0
0
0
0
0
0
0
0
0
0
0
0
0
0
0
0
0
0
0
0
0
0
0
0
0
0
0
0
0
0
0
0
0
0
0
0
0
0
0
0
0
0
0
0
0
0
0
0
0
0
0
0
0
0
0
0
0
0
0
0
0
0
0
0
0
0
0
0
0
0
0
0
0
0
0
0
0
0
0
0
0
0
0
0
0
0
0
0
0
0
0
0
0
0
0
0
0
0
0
0
0
0
0
0
0
0
0
0
0
0
0
0
0
0
0
0
0
0
0
0
0
0
0
0
0
0
0
0
0
0
0
0
0
0
0
0
0
0
0
0
0
0
0
0
0
0
0
0
0
0
0
0
0
0
0
0
0
0
0
0
0
0
0
0
0
0
0
0
0
0
0
0
0
0
0
0
0
0
0
0
0
0
0
)

// normalDirections

188
(
2(1 -1)
2(1 -1)
2(1 -1)
2(1 -1)
2(1 -1)
2(1 -1)
2(1 -1)
2(1 -1)
2(1 -1)
2(1 -1)
2(1 -1)
2(1 -1)
2(1 -1)
2(1 -1)
2(1 -1)
2(1 -1)
2(1 -1)
2(1 -1)
2(1 -1)
2(1 -1)
2(1 -1)
2(1 -1)
2(1 -1)
2(1 -1)
2(1 -1)
2(1 -1)
2(1 -1)
2(1 -1)
2(1 -1)
2(1 -1)
2(1 -1)
2(1 -1)
2(1 -1)
2(1 -1)
2(1 -1)
2(1 -1)
2(1 -1)
2(1 -1)
2(1 -1)
2(1 -1)
2(1 -1)
2(1 -1)
2(1 -1)
2(1 -1)
2(1 -1)
2(1 -1)
2(1 -1)
2(1 -1)
2(1 -1)
2(1 -1)
2(1 -1)
2(1 -1)
2(1 -1)
2(1 -1)
2(1 -1)
2(1 -1)
2(1 -1)
2(1 -1)
2(1 -1)
2(1 -1)
2(1 -1)
2(1 -1)
2(1 -1)
2(1 -1)
2(1 -1)
2(1 -1)
2(1 -1)
2(1 -1)
2(1 -1)
2(1 -1)
2(1 -1)
2(1 -1)
2(1 -1)
2(1 -1)
2(1 -1)
2(1 -1)
2(1 -1)
2(1 -1)
2(1 -1)
2(1 -1)
2(1 -1)
2(1 -1)
2(1 -1)
2(1 -1)
2(1 -1)
2(1 -1)
2(1 -1)
2(1 -1)
2(1 -1)
2(1 -1)
2(1 -1)
2(1 -1)
2(1 -1)
2(1 -1)
2(1 -1)
2(1 -1)
2(1 -1)
2(1 -1)
2(1 -1)
2(1 -1)
2(1 -1)
2(1 -1)
2(1 -1)
2(1 -1)
2(1 -1)
2(1 -1)
2(1 -1)
2(1 -1)
2(1 -1)
2(1 -1)
2(1 -1)
2(1 -1)
2(1 -1)
2(1 -1)
2(1 -1)
2(1 -1)
2(1 -1)
2(1 -1)
2(1 -1)
2(1 -1)
2(1 -1)
2(1 -1)
2(1 -1)
2(1 -1)
2(1 -1)
2(1 -1)
2(1 -1)
2(1 -1)
2(1 -1)
2(1 -1)
2(1 -1)
2(1 -1)
2(1 -1)
2(1 -1)
2(1 -1)
2(1 -1)
2(1 -1)
2(1 -1)
2(1 -1)
2(1 -1)
2(1 -1)
2(1 -1)
2(1 -1)
2(1 -1)
2(1 -1)
2(1 -1)
2(1 -1)
2(1 -1)
2(1 -1)
2(1 -1)
2(1 -1)
2(1 -1)
2(1 -1)
2(1 -1)
2(1 -1)
2(1 -1)
2(1 -1)
2(1 -1)
2(1 -1)
2(1 -1)
2(1 -1)
2(1 -1)
2(1 -1)
2(1 -1)
2(1 -1)
2(1 -1)
2(1 -1)
2(1 -1)
2(1 -1)
2(1 -1)
2(1 -1)
2(1 -1)
2(1 -1)
2(1 -1)
2(1 -1)
2(1 -1)
2(1 -1)
2(1 -1)
2(1 -1)
2(1 -1)
2(1 -1)
2(1 -1)
2(1 -1)
2(1 -1)
2(1 -1)
2(1 -1)
2(1 -1)
2(1 -1)
)

// edgeNormals

188
(
2(345 346)
2(345 347)
2(348 349)
2(348 350)
2(351 349)
2(351 352)
2(346 347)
2(353 354)
2(353 355)
2(354 355)
2(350 356)
2(356 352)
2(0 1)
2(0 2)
2(3 4)
2(5 6)
2(7 8)
2(9 10)
2(11 12)
2(13 14)
2(15 16)
2(17 18)
2(19 20)
2(21 22)
2(23 24)
2(25 26)
2(27 28)
2(29 30)
2(31 32)
2(33 34)
2(35 36)
2(37 38)
2(39 40)
2(41 42)
2(43 44)
2(45 46)
2(47 48)
2(49 50)
2(51 52)
2(53 54)
2(55 56)
2(57 58)
2(59 60)
2(61 62)
2(63 64)
2(65 66)
2(67 68)
2(69 70)
2(71 72)
2(73 74)
2(75 76)
2(77 78)
2(79 80)
2(81 82)
2(83 84)
2(85 86)
2(87 88)
2(89 90)
2(91 92)
2(93 94)
2(95 96)
2(97 98)
2(99 100)
2(101 102)
2(103 104)
2(105 106)
2(107 108)
2(109 110)
2(111 112)
2(113 114)
2(115 116)
2(117 118)
2(119 120)
2(121 122)
2(123 124)
2(125 126)
2(127 128)
2(129 130)
2(131 132)
2(133 134)
2(135 136)
2(137 138)
2(139 140)
2(141 142)
2(143 144)
2(145 146)
2(147 148)
2(149 150)
2(151 152)
2(153 154)
2(155 156)
2(157 158)
2(159 160)
2(161 162)
2(34 36)
2(1 163)
2(164 165)
2(166 167)
2(168 169)
2(170 171)
2(172 173)
2(174 175)
2(176 177)
2(178 179)
2(180 181)
2(182 183)
2(184 185)
2(186 187)
2(188 189)
2(190 191)
2(192 193)
2(194 195)
2(196 197)
2(198 199)
2(200 201)
2(202 203)
2(204 205)
2(206 207)
2(208 209)
2(210 211)
2(212 213)
2(214 215)
2(216 217)
2(218 219)
2(220 221)
2(222 223)
2(224 225)
2(226 227)
2(228 229)
2(230 231)
2(232 233)
2(234 235)
2(236 237)
2(238 239)
2(240 241)
2(242 243)
2(8 244)
2(58 245)
2(246 247)
2(248 249)
2(250 251)
2(252 253)
2(254 255)
2(256 257)
2(258 259)
2(260 261)
2(262 263)
2(264 265)
2(266 267)
2(268 269)
2(270 271)
2(272 273)
2(274 275)
2(276 277)
2(278 279)
2(280 281)
2(282 283)
2(284 285)
2(286 287)
2(288 289)
2(290 291)
2(292 293)
2(294 295)
2(296 297)
2(298 299)
2(300 301)
2(302 303)
2(304 305)
2(306 307)
2(308 309)
2(310 311)
2(312 313)
2(314 315)
2(316 317)
2(318 319)
2(320 321)
2(322 323)
2(324 325)
2(326 251)
2(327 328)
2(329 330)
2(331 332)
2(333 334)
2(335 336)
2(337 338)
2(339 340)
2(341 342)
2(343 344)
)

// featurePointNormals

14
(
3(345 346 347)
3(345 347 350)
3(345 346 349)
3(348 349 350)
3(351 352 347)
3(351 349 352)
3(353 354 355)
3(354 355 356)
3(0 1 2)
4(5 6 8 244)
3(33 34 36)
3(57 58 60)
4(166 167 169 334)
3(248 249 251)
)

// featurePointEdges

14
(
3(0 6 1)
3(3 10 1)
3(2 4 0)
3(2 7 3)
3(6 11 5)
3(4 8 5)
3(7 9 8)
3(10 11 9)
3(12 95 13)
3(16 136 15)
3(30 94 29)
3(42 137 41)
3(98 182 97)
3(140 178 139)
)

// regionEdges

176
(
12
13
14
15
16
17
18
19
20
21
22
23
24
25
26
27
28
29
30
31
32
33
34
35
36
37
38
39
40
41
42
43
44
45
46
47
48
49
50
51
52
53
54
55
56
57
58
59
60
61
62
63
64
65
66
67
68
69
70
71
72
73
74
75
76
77
78
79
80
81
82
83
84
85
86
87
88
89
90
91
92
93
94
95
96
97
98
99
100
101
102
103
104
105
106
107
108
109
110
111
112
113
114
115
116
117
118
119
120
121
122
123
124
125
126
127
128
129
130
131
132
133
134
135
136
137
138
139
140
141
142
143
144
145
146
147
148
149
150
151
152
153
154
155
156
157
158
159
160
161
162
163
164
165
166
167
168
169
170
171
172
173
174
175
176
177
178
179
180
181
182
183
184
185
186
187
)



// ************************************************************************* //
